*Heading
** Job name: plate_square8__9499 Model name: PlateModel
** Generated by: Abaqus/CAE 2022
*Preprint, echo=NO, model=NO, history=NO, contact=NO
**
** PARTS
**
*Part, name=plate
*Node
      1,   2.22222233,           4.
      2, -0.444444448,           4.
      3,  -2.22222233,           4.
      4,           4.,           4.
      5,          -4.,           4.
      6,           4.,  -2.22222233
      7,           4.,  0.444444448
      8,           4.,   2.22222233
      9,           4.,          -4.
     10,  -2.22222233,          -4.
     11,  0.444444448,          -4.
     12,   2.22222233,          -4.
     13,          -4.,          -4.
     14,          -4.,   2.22222233
     15,          -4., -0.444444448
     16,          -4.,  -2.22222233
     17,   28.2089558,           5.
     18,   26.4179096,           5.
     19,   24.6268654,           5.
     20,   22.8358212,           5.
** ... 780 like lines cut
*Element, type=CPS3
   1, 225,  32,   2
   2, 224,  31, 259
   3, 258,   1, 223
   4, 258, 223,   4
   5, 414, 333, 359
   6, 414, 359, 257
   7, 557,  94, 499
   8, 735, 699, 121
   9, 755, 737, 135
  10, 581, 505, 162
  11, 442, 361, 163
  12, 495, 360, 442
  13, 443, 362, 164
  14, 489, 361, 443
  15, 444, 383, 165
  16, 619, 484, 165
  17, 763, 739, 689
  18, 789, 741, 763
  19, 527, 100, 473
  20, 363,  22, 250
** ... 1388 like lines cut
*Nset, nset=_PickedSet2, internal, generate
   1,  800,    1
*Elset, elset=_PickedSet2, internal, generate
    1,  1408,     1
** Section: Section-1
*Solid Section, elset=_PickedSet2, material=Material-1
1.,
*End Part
**  
**
** ASSEMBLY
**
*Assembly, name=Assembly
**  
*Instance, name=plate-1, part=plate
*End Instance
**  
*Nset, nset=LeftEdgeSet, instance=plate-1
  49,  50,  51,  52,  53,  54,  55, 278, 279, 280, 281, 282
*Elset, elset=LeftEdgeSet, instance=plate-1
 221, 342, 407, 409, 410, 412, 712, 718, 723, 728, 735
*Elset, elset=_LoadSurface_S2, internal, instance=plate-1
 105, 108, 447, 449, 450, 710, 716, 722, 726, 743
*Elset, elset=_LoadSurface_S1, internal, instance=plate-1
 452,
*Surface, type=ELEMENT, name=LoadSurface
_LoadSurface_S2, S2
_LoadSurface_S1, S1
*End Assembly
** 
** MATERIALS
** 
*Material, name=Material-1
*Elastic
 2.9e+07, 0.3
** 
** BOUNDARY CONDITIONS
** 
** Name: BC-LeftEdge Type: Displacement/Rotation
*Boundary
LeftEdgeSet, 1, 1
LeftEdgeSet, 2, 2
** ----------------------------------------------------------------
** 
** STEP: Step-1
** 
*Step, name=Step-1, nlgeom=NO
*Static
1., 1., 1e-05, 1.
** 
** LOADS
** 
** Name: Load-1   Type: Pressure
*Dsload
LoadSurface, P, -9499.
** 
** OUTPUT REQUESTS
** 
*Restart, write, frequency=0
** 
** FIELD OUTPUT: F-Output-1
** 
*Output, field, variable=PRESELECT
** 
** HISTORY OUTPUT: H-Output-1
** 
*Output, history, variable=PRESELECT
*End Step
