*Heading
** Job name: plate_offset1__1000 Model name: PlateModel
** Generated by: Abaqus/CAE 2022
*Preprint, echo=NO, model=NO, history=NO, contact=NO
**
** PARTS
**
*Part, name=plate
*Node
      1,   4.60387564,   1.73553491
      2,   3.49395919,   3.12732601
      3,   1.89008379,   3.89971161
      4, -0.735534966,    3.6038754
      5,  -2.12732601,   2.49395919
      6,  -2.89971161,   0.89008373
      7,  -2.89971161,  -0.89008373
      8,  -2.12732601,  -2.49395919
      9, -0.735534966,   -3.6038754
     10,   1.89008379,  -3.89971161
     11,   3.49395919,  -3.12732601
     12,   4.60387564,  -1.73553491
     13,           5.,           0.
     14,   28.2089558,           5.
     15,   26.4179096,           5.
     16,   24.6268654,           5.
     17,   22.8358212,           5.
     18,   21.0447769,           5.
     19,   18.3582096,           5.
     20,   16.5671635,           5.
** ... 793 like lines cut
*Element, type=CPS3
   1, 337,  30, 258
   2, 400,   4, 399
   3, 399, 228, 256
   4, 256, 228,  29
   5, 227,   3, 255
   6, 470, 254,  28
   7, 470, 338, 254
   8, 441, 365, 398
   9, 211,   1, 224
  10, 775, 554,  91
  11, 339,  72, 301
  12, 429, 340, 117
  13, 430, 341, 118
  14, 514, 340, 430
  15, 431, 362, 119
  16, 581, 505, 119
  17, 747, 111, 681
  18, 656, 604, 649
  19, 583, 503, 558
  20, 342,  22, 249
** ... 1422 like lines cut
*Nset, nset=_PickedSet2, internal, generate
   1,  813,    1
*Elset, elset=_PickedSet2, internal, generate
    1,  1442,     1
** Section: Section-1
*Solid Section, elset=_PickedSet2, material=Material-1
1.,
*End Part
**  
**
** ASSEMBLY
**
*Assembly, name=Assembly
**  
*Instance, name=plate-1, part=plate
*End Instance
**  
*Nset, nset=LeftEdgeSet, instance=plate-1
  46,  47,  48,  49,  50,  51,  52, 274, 275, 276, 277, 278
*Elset, elset=LeftEdgeSet, instance=plate-1
 238, 324, 407, 409, 410, 412, 722, 730, 733, 738, 745
*Elset, elset=_LoadSurface_S2, internal, instance=plate-1
  56,  59, 447, 449, 450, 720, 726, 732, 736, 753
*Elset, elset=_LoadSurface_S1, internal, instance=plate-1
 452,
*Surface, type=ELEMENT, name=LoadSurface
_LoadSurface_S2, S2
_LoadSurface_S1, S1
*End Assembly
** 
** MATERIALS
** 
*Material, name=Material-1
*Elastic
 2.9e+07, 0.3
** 
** BOUNDARY CONDITIONS
** 
** Name: BC-LeftEdge Type: Displacement/Rotation
*Boundary
LeftEdgeSet, 1, 1
LeftEdgeSet, 2, 2
** ----------------------------------------------------------------
** 
** STEP: Step-1
** 
*Step, name=Step-1, nlgeom=NO
*Static
1., 1., 1e-05, 1.
** 
** LOADS
** 
** Name: Load-1   Type: Pressure
*Dsload
LoadSurface, P, -1000.
** 
** OUTPUT REQUESTS
** 
*Restart, write, frequency=0
** 
** FIELD OUTPUT: F-Output-1
** 
*Output, field, variable=PRESELECT
** 
** HISTORY OUTPUT: H-Output-1
** 
*Output, history, variable=PRESELECT
*End Step
