*Heading
** Job name: plate_offset15__8499 Model name: PlateModel
** Generated by: Abaqus/CAE 2022
*Preprint, echo=NO, model=NO, history=NO, contact=NO
**
** PARTS
**
*Part, name=plate
*Node
      1,   18.6038761,   1.73553491
      2,   17.4939594,   3.12732601
      3,   15.8900833,   3.89971161
      4,   13.2644653,    3.6038754
      5,    11.872674,   2.49395919
      6,   11.1002884,   0.89008373
      7,   11.1002884,  -0.89008373
      8,    11.872674,  -2.49395919
      9,   13.2644653,   -3.6038754
     10,   15.8900833,  -3.89971161
     11,   17.4939594,  -3.12732601
     12,   18.6038761,  -1.73553491
     13,          19.,           0.
     14,   28.2089558,           5.
     15,   26.4179096,           5.
     16,   24.6268654,           5.
     17,   22.8358212,           5.
     18,   21.0447769,           5.
     19,   18.3582096,           5.
     20,   16.5671635,           5.
** ... 784 like lines cut
*Element, type=CPS3
   1, 335,  11, 235
   2, 436, 337, 100
   3,  10, 234, 303
   4, 303, 234,  76
   5, 392, 233,   9
   6, 523, 435, 232
   7, 474, 384, 434
   8, 433, 384, 107
   9, 432, 382, 298
  10, 431, 381, 297
  11, 430, 380, 296
  12, 336, 294, 295
  13, 428, 113, 378
  14, 487, 377, 427
  15, 496, 376, 426
  16, 504, 375, 425
  17, 513, 374, 424
  18, 517, 373, 423
  19, 422, 372, 287
  20, 421, 371, 286
** ... 1404 like lines cut
*Nset, nset=_PickedSet2, internal, generate
   1,  804,    1
*Elset, elset=_PickedSet2, internal, generate
    1,  1424,     1
** Section: Section-1
*Solid Section, elset=_PickedSet2, material=Material-1
1.,
*End Part
**  
**
** ASSEMBLY
**
*Assembly, name=Assembly
**  
*Instance, name=plate-1, part=plate
*End Instance
**  
*Nset, nset=LeftEdgeSet, instance=plate-1
  46,  47,  48,  49,  50,  51,  52, 272, 273, 274, 275, 276
*Elset, elset=LeftEdgeSet, instance=plate-1
 216, 333, 405, 407, 408, 410, 722, 732, 737, 740, 747
*Elset, elset=_LoadSurface_S2, internal, instance=plate-1
 266, 269, 445, 447, 448, 724, 726, 734, 736, 755
*Elset, elset=_LoadSurface_S1, internal, instance=plate-1
 450,
*Surface, type=ELEMENT, name=LoadSurface
_LoadSurface_S2, S2
_LoadSurface_S1, S1
*End Assembly
** 
** MATERIALS
** 
*Material, name=Material-1
*Elastic
 2.9e+07, 0.3
** 
** BOUNDARY CONDITIONS
** 
** Name: BC-LeftEdge Type: Displacement/Rotation
*Boundary
LeftEdgeSet, 1, 1
LeftEdgeSet, 2, 2
** ----------------------------------------------------------------
** 
** STEP: Step-1
** 
*Step, name=Step-1, nlgeom=NO
*Static
1., 1., 1e-05, 1.
** 
** LOADS
** 
** Name: Load-1   Type: Pressure
*Dsload
LoadSurface, P, -8499.
** 
** OUTPUT REQUESTS
** 
*Restart, write, frequency=0
** 
** FIELD OUTPUT: F-Output-1
** 
*Output, field, variable=PRESELECT
** 
** HISTORY OUTPUT: H-Output-1
** 
*Output, history, variable=PRESELECT
*End Step
