*Heading
** Job name: plate_three4__6999 Model name: PlateModel
** Generated by: Abaqus/CAE 2022
*Preprint, echo=NO, model=NO, history=NO, contact=NO
**
** PARTS
**
*Part, name=plate
*Node
      1,   16.8019371,  0.867767453
      2,   16.2469788,   1.56366301
      3,   15.4450417,    1.9498558
      4,   13.7530203,   1.56366301
      5,   13.1980619,  0.867767453
      6,          13.,           0.
      7,   13.1980619, -0.867767453
      8,   13.7530203,  -1.56366301
      9,   14.5549583,   -1.9498558
     10,   16.2469788,  -1.56366301
     11,   16.8019371, -0.867767453
     12,          17.,           0.
     13,  -13.1980619,  0.867767453
     14,  -13.7530203,   1.56366301
     15,  -14.5549583,    1.9498558
     16,  -16.2469788,   1.56366301
     17,  -16.8019371,  0.867767453
     18,         -17.,           0.
     19,  -16.8019371, -0.867767453
     20,  -16.2469788,  -1.56366301
** ... 826 like lines cut
*Element, type=CPS3
   1, 527, 358,   1
   2, 799, 785, 748
   3, 826, 806, 760
   4, 769, 713, 216
   5, 818, 752, 784
   6, 792, 715, 742
   7, 816, 219, 715
   8, 500, 499, 111
   9, 510, 500, 337
  10, 599, 500, 510
  11, 493, 338, 365
  12, 381, 260, 366
  13, 366, 260,  38
  14, 382,  38, 261
  15, 367, 261,  39
  16, 663, 541, 170
  17, 784, 752, 125
  18, 596, 342, 258
  19,  34, 116,  35
  20, 619, 342, 596
** ... 1478 like lines cut
*Nset, nset=_PickedSet2, internal, generate
   1,  846,    1
*Elset, elset=_PickedSet2, internal, generate
    1,  1498,     1
** Section: Section-1
*Solid Section, elset=_PickedSet2, material=Material-1
1.,
*End Part
**  
**
** ASSEMBLY
**
*Assembly, name=Assembly
**  
*Instance, name=plate-1, part=plate
*End Instance
**  
*Nset, nset=LeftEdgeSet, instance=plate-1
  69,  70,  71,  72,  73,  74,  75, 294, 295, 296, 297, 298
*Elset, elset=LeftEdgeSet, instance=plate-1
 232, 363, 437, 439, 440, 442, 794, 800, 807, 810, 817
*Elset, elset=_LoadSurface_S2, internal, instance=plate-1
 310, 313, 477, 479, 480, 792, 796, 804, 806, 825
*Elset, elset=_LoadSurface_S1, internal, instance=plate-1
 482,
*Surface, type=ELEMENT, name=LoadSurface
_LoadSurface_S2, S2
_LoadSurface_S1, S1
*End Assembly
** 
** MATERIALS
** 
*Material, name=Material-1
*Elastic
 2.9e+07, 0.3
** 
** BOUNDARY CONDITIONS
** 
** Name: BC-LeftEdge Type: Displacement/Rotation
*Boundary
LeftEdgeSet, 1, 1
LeftEdgeSet, 2, 2
** ----------------------------------------------------------------
** 
** STEP: Step-1
** 
*Step, name=Step-1, nlgeom=NO
*Static
1., 1., 1e-05, 1.
** 
** LOADS
** 
** Name: Load-1   Type: Pressure
*Dsload
LoadSurface, P, -6999.
** 
** OUTPUT REQUESTS
** 
*Restart, write, frequency=0
** 
** FIELD OUTPUT: F-Output-1
** 
*Output, field, variable=PRESELECT
** 
** HISTORY OUTPUT: H-Output-1
** 
*Output, history, variable=PRESELECT
*End Step
