*Heading
** Job name: plate_circle8__8499 Model name: PlateModel
** Generated by: Abaqus/CAE 2022
*Preprint, echo=NO, model=NO, history=NO, contact=NO
**
** PARTS
**
*Part, name=plate
*Node
      1,    3.6038754,   1.73553491
      2,   2.49395919,   3.12732601
      3,   0.89008373,   3.89971161
      4,  -1.73553491,    3.6038754
      5,  -3.12732601,   2.49395919
      6,  -3.89971161,   0.89008373
      7,  -3.89971161,  -0.89008373
      8,  -3.12732601,  -2.49395919
      9,  -1.73553491,   -3.6038754
     10,   0.89008373,  -3.89971161
     11,   2.49395919,  -3.12732601
     12,    3.6038754,  -1.73553491
     13,           4.,           0.
     14,   28.2089558,           5.
     15,   26.4179096,           5.
     16,   24.6268654,           5.
     17,   22.8358212,           5.
     18,   21.0447769,           5.
     19,   18.3582096,           5.
     20,   16.5671635,           5.
** ... 782 like lines cut
*Element, type=CPS3
   1, 337,  69, 296
   2, 440, 337, 235
   3,  10, 234, 294
   4, 294, 234,  68
   5, 445, 233,   9
   6, 423, 232, 377
   7, 474, 376, 422
   8, 506, 375, 421
   9, 516, 374, 420
  10, 520, 373, 419
  11, 418, 372, 287
  12, 417, 371, 286
  13, 336, 334, 285
  14, 479, 332, 137
  15, 331, 139, 320
  16, 415, 369, 281
  17, 330, 280,  56
  18, 329, 279,  55
  19, 328, 278,  54
  20, 453, 276, 327
** ... 1400 like lines cut
*Nset, nset=_PickedSet2, internal, generate
   1,  802,    1
*Elset, elset=_PickedSet2, internal, generate
    1,  1420,     1
** Section: Section-1
*Solid Section, elset=_PickedSet2, material=Material-1
1.,
*End Part
**  
**
** ASSEMBLY
**
*Assembly, name=Assembly
**  
*Instance, name=plate-1, part=plate
*End Instance
**  
*Nset, nset=LeftEdgeSet, instance=plate-1
  46,  47,  48,  49,  50,  51,  52, 272, 273, 274, 275, 276
*Elset, elset=LeftEdgeSet, instance=plate-1
 192, 333, 405, 407, 408, 410, 722, 732, 737, 740, 747
*Elset, elset=_LoadSurface_S2, internal, instance=plate-1
 274, 277, 445, 447, 448, 724, 726, 734, 736, 755
*Elset, elset=_LoadSurface_S1, internal, instance=plate-1
 450,
*Surface, type=ELEMENT, name=LoadSurface
_LoadSurface_S2, S2
_LoadSurface_S1, S1
*End Assembly
** 
** MATERIALS
** 
*Material, name=Material-1
*Elastic
 2.9e+07, 0.3
** 
** BOUNDARY CONDITIONS
** 
** Name: BC-LeftEdge Type: Displacement/Rotation
*Boundary
LeftEdgeSet, 1, 1
LeftEdgeSet, 2, 2
** ----------------------------------------------------------------
** 
** STEP: Step-1
** 
*Step, name=Step-1, nlgeom=NO
*Static
1., 1., 1e-05, 1.
** 
** LOADS
** 
** Name: Load-1   Type: Pressure
*Dsload
LoadSurface, P, -8499.
** 
** OUTPUT REQUESTS
** 
*Restart, write, frequency=0
** 
** FIELD OUTPUT: F-Output-1
** 
*Output, field, variable=PRESELECT
** 
** HISTORY OUTPUT: H-Output-1
** 
*Output, history, variable=PRESELECT
*End Step
