*Heading
** Job name: plate_nohole__8999 Model name: PlateModel
** Generated by: Abaqus/CAE 2022
*Preprint, echo=NO, model=NO, history=NO, contact=NO
**
** PARTS
**
*Part, name=plate
*Node
      1,          30.,           5.
      2,   29.1044769,           5.
      3,   28.2089558,           5.
      4,   27.3134327,           5.
      5,   26.4179096,           5.
      6,   25.5223885,           5.
      7,   24.6268654,           5.
      8,   23.7313442,           5.
      9,   22.8358212,           5.
     10,   21.9402981,           5.
     11,   21.0447769,           5.
     12,   20.1492538,           5.
     13,   19.2537308,           5.
     14,   18.3582096,           5.
     15,   17.4626865,           5.
     16,   16.5671635,           5.
     17,   15.6716413,           5.
     18,   14.7761192,           5.
     19,   13.8805971,           5.
     20,    12.985075,           5.
** ... 796 like lines cut
*Element, type=CPS3
   1,   1,   2,  70
   2,  70,  69,   1
   3,   2,   3,  71
   4,  71,  70,   2
   5,   3,   4,  72
   6,  72,  71,   3
   7,   4,   5,  73
   8,  73,  72,   4
   9,   5,   6,  74
  10,  74,  73,   5
  11,   6,   7,  75
  12,  75,  74,   6
  13,   7,   8,  76
  14,  76,  75,   7
  15,   8,   9,  77
  16,  77,  76,   8
  17,   9,  10,  78
  18,  78,  77,   9
  19,  10,  11,  79
  20,  79,  78,  10
** ... 1454 like lines cut
*Nset, nset=_PickedSet2, internal, generate
   1,  816,    1
*Elset, elset=_PickedSet2, internal, generate
    1,  1474,     1
** Section: Section-1
*Solid Section, elset=_PickedSet2, material=Material-1
1.,
*End Part
**  
**
** ASSEMBLY
**
*Assembly, name=Assembly
**  
*Instance, name=plate-1, part=plate
*End Instance
**  
*Nset, nset=LeftEdgeSet, instance=plate-1, generate
  68,  816,   68
*Elset, elset=LeftEdgeSet, instance=plate-1, generate
  133,  1473,   134
*Elset, elset=_LoadSurface_S2, internal, instance=plate-1, generate
    2,  1342,   134
*Surface, type=ELEMENT, name=LoadSurface
_LoadSurface_S2, S2
*End Assembly
** 
** MATERIALS
** 
*Material, name=Material-1
*Elastic
 2.9e+07, 0.3
** 
** BOUNDARY CONDITIONS
** 
** Name: BC-LeftEdge Type: Displacement/Rotation
*Boundary
LeftEdgeSet, 1, 1
LeftEdgeSet, 2, 2
** ----------------------------------------------------------------
** 
** STEP: Step-1
** 
*Step, name=Step-1, nlgeom=NO
*Static
1., 1., 1e-05, 1.
** 
** LOADS
** 
** Name: Load-1   Type: Pressure
*Dsload
LoadSurface, P, -8999.
** 
** OUTPUT REQUESTS
** 
*Restart, write, frequency=0
** 
** FIELD OUTPUT: F-Output-1
** 
*Output, field, variable=PRESELECT
** 
** HISTORY OUTPUT: H-Output-1
** 
*Output, history, variable=PRESELECT
*End Step
