*Heading
** Job name: plate_circle1__1000 Model name: PlateModel
** Generated by: Abaqus/CAE 2022
*Preprint, echo=NO, model=NO, history=NO, contact=NO
**
** PARTS
**
*Part, name=plate
*Node
      1,  0.353553385,  0.353553385
      2,           0.,          0.5
      3, -0.353553385,  0.353553385
      4,         -0.5,           0.
      5, -0.353553385, -0.353553385
      6,           0.,         -0.5
      7,  0.353553385, -0.353553385
      8,          0.5,           0.
      9,   28.2089558,           5.
     10,   26.4179096,           5.
     11,   24.6268654,           5.
     12,   22.8358212,           5.
     13,   21.0447769,           5.
     14,   18.3582096,           5.
     15,   16.5671635,           5.
     16,   14.7761192,           5.
     17,    12.985075,           5.
     18,   11.1940298,           5.
     19,   9.40298462,           5.
     20,   7.61194038,           5.
** ... 953 like lines cut
*Element, type=CPS3
   1, 334,   8, 326
   2, 565, 541, 556
   3, 771, 716, 770
   4, 846, 835, 158
   5, 865, 157, 860
   6, 890, 855, 881
   7, 848, 838, 827
   8, 796, 709, 780
   9, 692, 629, 153
  10, 693, 152, 659
  11, 957, 798, 653
  12, 720, 695, 621
  13, 657, 623, 149
  14, 665, 632, 148
  15, 667, 638, 147
  16, 875, 146, 868
  17, 472, 471,  83
  18, 482, 472, 317
  19, 959, 472, 482
  20, 465, 318, 337
** ... 1762 like lines cut
*Nset, nset=_PickedSet2, internal, generate
   1,  973,    1
*Elset, elset=_PickedSet2, internal, generate
    1,  1782,     1
** Section: Section-1
*Solid Section, elset=_PickedSet2, material=Material-1
1.,
*End Part
**  
**
** ASSEMBLY
**
*Assembly, name=Assembly
**  
*Instance, name=plate-1, part=plate
*End Instance
**  
*Nset, nset=LeftEdgeSet, instance=plate-1
  41,  42,  43,  44,  45,  46,  47, 274, 275, 276, 277, 278
*Elset, elset=LeftEdgeSet, instance=plate-1
 204, 350, 427, 429, 430, 432, 768, 776, 781, 784, 791
*Elset, elset=_LoadSurface_S2, internal, instance=plate-1
 300, 303, 467, 469, 470, 766, 772, 778, 780, 799
*Elset, elset=_LoadSurface_S1, internal, instance=plate-1
 472,
*Surface, type=ELEMENT, name=LoadSurface
_LoadSurface_S2, S2
_LoadSurface_S1, S1
*End Assembly
** 
** MATERIALS
** 
*Material, name=Material-1
*Elastic
 2.9e+07, 0.3
** 
** BOUNDARY CONDITIONS
** 
** Name: BC-LeftEdge Type: Displacement/Rotation
*Boundary
LeftEdgeSet, 1, 1
LeftEdgeSet, 2, 2
** ----------------------------------------------------------------
** 
** STEP: Step-1
** 
*Step, name=Step-1, nlgeom=NO
*Static
1., 1., 1e-05, 1.
** 
** LOADS
** 
** Name: Load-1   Type: Pressure
*Dsload
LoadSurface, P, -1000.
** 
** OUTPUT REQUESTS
** 
*Restart, write, frequency=0
** 
** FIELD OUTPUT: F-Output-1
** 
*Output, field, variable=PRESELECT
** 
** HISTORY OUTPUT: H-Output-1
** 
*Output, history, variable=PRESELECT
*End Step
