*Heading
** Job name: plate_ellipse84__1000 Model name: PlateModel
** Generated by: Abaqus/CAE 2022
*Preprint, echo=NO, model=NO, history=NO, contact=NO
**
** PARTS
**
*Part, name=plate
*Node
      1,   3.75205398,  0.693197429
      2,   3.14095807,   1.23838425
      3,   1.61251664,   1.83028615
      4, -0.0225312505,   1.99996829
      5,  -1.95234668,   1.74559033
      6,  -2.86240435,   1.39701843
      7,  -3.64553833,  0.823111594
      8,  -3.99898529, 0.0450473651
      9,   -3.7819562, -0.651307821
     10,  -2.44794106,  -1.58173835
     11,  -1.65898955,  -1.81987321
     12, -0.0225312505,  -1.99996829
     13,   1.61251664,  -1.83028615
     14,   3.14095807,  -1.23838425
     15,   3.75205398, -0.693197429
     16,           4.,           0.
     17,   28.2089558,           5.
     18,   26.4179096,           5.
     19,   24.6268654,           5.
     20,   22.8358212,           5.
** ... 841 like lines cut
*Element, type=CPS3
   1, 326,  16, 325
   2, 601, 224, 494
   3, 738, 701, 225
   4, 761, 685, 226
   5, 789, 694, 227
   6, 704, 624, 228
   7, 766, 717, 229
   8, 794, 230, 756
   9, 849, 779, 844
  10, 804, 110, 787
  11, 736, 690, 233
  12, 802, 109, 720
  13, 749, 635, 235
  14, 752, 476, 477
  15, 477, 476,  91
  16, 487, 477, 322
  17, 832, 477, 487
  18, 470, 323, 342
  19, 358, 245, 343
  20, 343, 245,  18
** ... 1523 like lines cut
*Nset, nset=_PickedSet2, internal, generate
   1,  861,    1
*Elset, elset=_PickedSet2, internal, generate
    1,  1543,     1
** Section: Section-1
*Solid Section, elset=_PickedSet2, material=Material-1
1.,
*End Part
**  
**
** ASSEMBLY
**
*Assembly, name=Assembly
**  
*Instance, name=plate-1, part=plate
*End Instance
**  
*Nset, nset=LeftEdgeSet, instance=plate-1
  49,  50,  51,  52,  53,  54,  55, 279, 280, 281, 282, 283
*Elset, elset=LeftEdgeSet, instance=plate-1
 217, 349, 422, 424, 425, 427, 763, 771, 776, 779, 786
*Elset, elset=_LoadSurface_S2, internal, instance=plate-1
 239, 242, 462, 464, 465, 761, 765, 773, 775, 794
*Elset, elset=_LoadSurface_S1, internal, instance=plate-1
 467,
*Surface, type=ELEMENT, name=LoadSurface
_LoadSurface_S2, S2
_LoadSurface_S1, S1
*End Assembly
** 
** MATERIALS
** 
*Material, name=Material-1
*Elastic
 2.9e+07, 0.3
** 
** BOUNDARY CONDITIONS
** 
** Name: BC-LeftEdge Type: Displacement/Rotation
*Boundary
LeftEdgeSet, 1, 1
LeftEdgeSet, 2, 2
** ----------------------------------------------------------------
** 
** STEP: Step-1
** 
*Step, name=Step-1, nlgeom=NO
*Static
1., 1., 1e-05, 1.
** 
** LOADS
** 
** Name: Load-1   Type: Pressure
*Dsload
LoadSurface, P, -1000.
** 
** OUTPUT REQUESTS
** 
*Restart, write, frequency=0
** 
** FIELD OUTPUT: F-Output-1
** 
*Output, field, variable=PRESELECT
** 
** HISTORY OUTPUT: H-Output-1
** 
*Output, history, variable=PRESELECT
*End Step
