*Heading
** Job name: plate_double4__9499 Model name: PlateModel
** Generated by: Abaqus/CAE 2022
*Preprint, echo=NO, model=NO, history=NO, contact=NO
**
** PARTS
**
*Part, name=plate
*Node
      1,   16.8019371,  0.867767453
      2,   16.2469788,   1.56366301
      3,   15.4450417,    1.9498558
      4,   13.7530203,   1.56366301
      5,   13.1980619,  0.867767453
      6,          13.,           0.
      7,   13.1980619, -0.867767453
      8,   13.7530203,  -1.56366301
      9,   14.5549583,   -1.9498558
     10,   16.2469788,  -1.56366301
     11,   16.8019371, -0.867767453
     12,          17.,           0.
     13,  -13.1980619,  0.867767453
     14,  -13.7530203,   1.56366301
     15,  -14.5549583,    1.9498558
     16,  -16.2469788,   1.56366301
     17,  -16.8019371,  0.867767453
     18,         -17.,           0.
     19,  -16.8019371, -0.867767453
     20,  -16.2469788,  -1.56366301
** ... 833 like lines cut
*Element, type=CPS3
   1, 504, 343,   1
   2, 778, 760, 715
   3, 809, 786, 729
   4, 740, 682, 214
   5, 803, 721, 759
   6, 768, 686, 711
   7, 799, 217, 686
   8, 483, 482,  99
   9, 493, 483, 328
  10, 570, 483, 493
  11, 476, 329, 348
  12, 364, 251, 349
  13, 349, 251,  26
  14, 365,  26, 252
  15, 350, 252,  27
  16, 632, 516, 175
  17, 759, 721, 111
  18, 568, 541, 330
  19,  22, 102,  23
  20, 568, 330, 249
** ... 1504 like lines cut
*Nset, nset=_PickedSet2, internal, generate
   1,  853,    1
*Elset, elset=_PickedSet2, internal, generate
    1,  1524,     1
** Section: Section-1
*Solid Section, elset=_PickedSet2, material=Material-1
1.,
*End Part
**  
**
** ASSEMBLY
**
*Assembly, name=Assembly
**  
*Instance, name=plate-1, part=plate
*End Instance
**  
*Nset, nset=LeftEdgeSet, instance=plate-1
  57,  58,  59,  60,  61,  62,  63, 285, 286, 287, 288, 289
*Elset, elset=LeftEdgeSet, instance=plate-1
 223, 367, 431, 433, 434, 436, 772, 778, 785, 788, 795
*Elset, elset=_LoadSurface_S2, internal, instance=plate-1
 292, 295, 471, 473, 474, 770, 774, 782, 784, 803
*Elset, elset=_LoadSurface_S1, internal, instance=plate-1
 476,
*Surface, type=ELEMENT, name=LoadSurface
_LoadSurface_S2, S2
_LoadSurface_S1, S1
*End Assembly
** 
** MATERIALS
** 
*Material, name=Material-1
*Elastic
 2.9e+07, 0.3
** 
** BOUNDARY CONDITIONS
** 
** Name: BC-LeftEdge Type: Displacement/Rotation
*Boundary
LeftEdgeSet, 1, 1
LeftEdgeSet, 2, 2
** ----------------------------------------------------------------
** 
** STEP: Step-1
** 
*Step, name=Step-1, nlgeom=NO
*Static
1., 1., 1e-05, 1.
** 
** LOADS
** 
** Name: Load-1   Type: Pressure
*Dsload
LoadSurface, P, -9499.
** 
** OUTPUT REQUESTS
** 
*Restart, write, frequency=0
** 
** FIELD OUTPUT: F-Output-1
** 
*Output, field, variable=PRESELECT
** 
** HISTORY OUTPUT: H-Output-1
** 
*Output, history, variable=PRESELECT
*End Step
