*Heading
** Job name: plate_double8__8499 Model name: PlateModel
** Generated by: Abaqus/CAE 2022
*Preprint, echo=NO, model=NO, history=NO, contact=NO
**
** PARTS
**
*Part, name=plate
*Node
      1,   18.6038761,   1.73553491
      2,   17.4939594,   3.12732601
      3,   15.8900833,   3.89971161
      4,   13.2644653,    3.6038754
      5,    11.872674,   2.49395919
      6,   11.1002884,   0.89008373
      7,   11.1002884,  -0.89008373
      8,    11.872674,  -2.49395919
      9,   13.2644653,   -3.6038754
     10,   15.8900833,  -3.89971161
     11,   17.4939594,  -3.12732601
     12,   18.6038761,  -1.73553491
     13,          19.,           0.
     14,  -11.3961248,   1.73553491
     15,  -12.5060406,   3.12732601
     16,  -14.1099167,   3.89971161
     17,  -16.7355347,    3.6038754
     18,  -18.1273251,   2.49395919
     19,  -18.8997116,   0.89008373
     20,  -18.8997116,  -0.89008373
** ... 727 like lines cut
*Element, type=CPS3
   1, 348,  11, 235
   2, 431, 349, 113
   3, 234, 316,  10
   4, 316, 234,  89
   5, 352, 233,   9
   6, 315,  89, 233
   7, 480, 236, 113
   8, 431,  11, 348
   9, 432, 349, 318
  10, 521, 500, 114
  11, 457,  13, 331
  12, 685, 624, 198
  13, 647, 631, 199
  14, 667, 629, 200
  15, 703, 654, 675
  16, 724, 202, 654
  17, 466, 465, 101
  18, 476, 466, 328
  19, 534, 466, 476
  20, 459, 329, 336
** ... 1264 like lines cut
*Nset, nset=_PickedSet2, internal, generate
   1,  747,    1
*Elset, elset=_PickedSet2, internal, generate
    1,  1284,     1
** Section: Section-1
*Solid Section, elset=_PickedSet2, material=Material-1
1.,
*End Part
**  
**
** ASSEMBLY
**
*Assembly, name=Assembly
**  
*Instance, name=plate-1, part=plate
*End Instance
**  
*Nset, nset=LeftEdgeSet, instance=plate-1
  59,  60,  61,  62,  63,  64,  65, 285, 286, 287, 288, 289
*Elset, elset=LeftEdgeSet, instance=plate-1
 107, 346, 348, 410, 412, 413, 415, 710, 712, 726, 733
*Elset, elset=_LoadSurface_S2, internal, instance=plate-1
 243, 246, 447, 449, 450, 708, 714, 720, 722, 741
*Elset, elset=_LoadSurface_S1, internal, instance=plate-1
 452,
*Surface, type=ELEMENT, name=LoadSurface
_LoadSurface_S2, S2
_LoadSurface_S1, S1
*End Assembly
** 
** MATERIALS
** 
*Material, name=Material-1
*Elastic
 2.9e+07, 0.3
** 
** BOUNDARY CONDITIONS
** 
** Name: BC-LeftEdge Type: Displacement/Rotation
*Boundary
LeftEdgeSet, 1, 1
LeftEdgeSet, 2, 2
** ----------------------------------------------------------------
** 
** STEP: Step-1
** 
*Step, name=Step-1, nlgeom=NO
*Static
1., 1., 1e-05, 1.
** 
** LOADS
** 
** Name: Load-1   Type: Pressure
*Dsload
LoadSurface, P, -8499.
** 
** OUTPUT REQUESTS
** 
*Restart, write, frequency=0
** 
** FIELD OUTPUT: F-Output-1
** 
*Output, field, variable=PRESELECT
** 
** HISTORY OUTPUT: H-Output-1
** 
*Output, history, variable=PRESELECT
*End Step
