*Heading
** Job name: plate_circle4__1000 Model name: PlateModel
** Generated by: Abaqus/CAE 2022
*Preprint, echo=NO, model=NO, history=NO, contact=NO
**
** PARTS
**
*Part, name=plate
*Node
      1,    1.8019377,  0.867767453
      2,   1.24697959,   1.56366301
      3,  0.445041865,    1.9498558
      4,  -1.24697959,   1.56366301
      5,   -1.8019377,  0.867767453
      6,          -2.,           0.
      7,   -1.8019377, -0.867767453
      8,  -1.24697959,  -1.56366301
      9, -0.445041865,   -1.9498558
     10,   1.24697959,  -1.56366301
     11,    1.8019377, -0.867767453
     12,           2.,           0.
     13,   28.2089558,           5.
     14,   26.4179096,           5.
     15,   24.6268654,           5.
     16,   22.8358212,           5.
     17,   21.0447769,           5.
     18,   18.3582096,           5.
     19,   16.5671635,           5.
     20,   14.7761192,           5.
** ... 836 like lines cut
*Element, type=CPS3
   1, 481, 327,   1
   2, 741, 118, 712
   3, 831, 722, 810
   4, 813, 787, 227
   5, 689, 637, 228
   6, 691, 633, 229
   7, 685, 629, 230
   8, 759, 715, 231
   9, 793, 232, 755
  10, 855, 777, 845
  11, 820, 785, 733
  12, 747, 677, 235
  13, 801, 718, 764
  14, 771, 681, 710
  15, 798, 238, 681
  16, 466, 465,  87
  17, 476, 466, 319
  18, 541, 466, 476
  19, 459, 320, 331
  20, 347, 242, 332
** ... 1522 like lines cut
*Nset, nset=_PickedSet2, internal, generate
   1,  856,    1
*Elset, elset=_PickedSet2, internal, generate
    1,  1542,     1
** Section: Section-1
*Solid Section, elset=_PickedSet2, material=Material-1
1.,
*End Part
**  
**
** ASSEMBLY
**
*Assembly, name=Assembly
**  
*Instance, name=plate-1, part=plate
*End Instance
**  
*Nset, nset=LeftEdgeSet, instance=plate-1
  45,  46,  47,  48,  49,  50,  51, 276, 277, 278, 279, 280
*Elset, elset=LeftEdgeSet, instance=plate-1
 196, 361, 425, 427, 428, 430, 750, 758, 763, 766, 773
*Elset, elset=_LoadSurface_S2, internal, instance=plate-1
 243, 246, 465, 467, 468, 748, 754, 760, 762, 781
*Elset, elset=_LoadSurface_S1, internal, instance=plate-1
 470,
*Surface, type=ELEMENT, name=LoadSurface
_LoadSurface_S2, S2
_LoadSurface_S1, S1
*End Assembly
** 
** MATERIALS
** 
*Material, name=Material-1
*Elastic
 2.9e+07, 0.3
** 
** BOUNDARY CONDITIONS
** 
** Name: BC-LeftEdge Type: Displacement/Rotation
*Boundary
LeftEdgeSet, 1, 1
LeftEdgeSet, 2, 2
** ----------------------------------------------------------------
** 
** STEP: Step-1
** 
*Step, name=Step-1, nlgeom=NO
*Static
1., 1., 1e-05, 1.
** 
** LOADS
** 
** Name: Load-1   Type: Pressure
*Dsload
LoadSurface, P, -1000.
** 
** OUTPUT REQUESTS
** 
*Restart, write, frequency=0
** 
** FIELD OUTPUT: F-Output-1
** 
*Output, field, variable=PRESELECT
** 
** HISTORY OUTPUT: H-Output-1
** 
*Output, history, variable=PRESELECT
*End Step
